ELEMENTS
H   O    C    N    AR   HE
END
SPECIES
N2  AR   HE   O2   O    
H   HO2  OH   H2   H2O2 
H2O C    CO2  CO   CH   
HCO CH2  CH2(S)   CH2O CH3  
CH3O    CH2OH    CH4  CH3OH    C2   
C2H HCCO C2H2 CH2CO    C2H3 
CH2CHO  CH3CO    C2H4 CH3CHO   C2H5 
C2H5O2  CH2CH2OH CH2OCH   CH2OCH2  CH3CH2O  
CH3CHOH CH2CHOO  
C2H6    C2H5O2H  C2H5OH   C2H3OH   CH3O2    
CH3O2H  CH2CH2O2H   O2C2H4OH C2H4O2OH C3H2 
H2CCCH  C2H5CHO  C4H  
C4  C3H4 C3H5 C3H6 
nC3H7   
iC3H7   C3H8 C4H2 H2CCCCH  C4H4 
i-C4H5  C4H6 nC4H7    C4H8 iC4H8    
nC4H9   iC4H9    tC4H9    C3H5O    sC4H9    
nC4H10  C4H8OOO2H   C4H9OO   C4H8OOH  C4H8O    
C4H8O3  C4H9OOH  H2CC C5H11    
C5H10   C5H9 C5H8 iC6H13   iC7H15   
iC4H7   iC5H11   aC6H12   
C6H11   C6H13    iC6H12   iC6H11   aC7H14   
cC7H14  C6H10    C7H16    C7H13    C7H15O2  
C7H15OO C7H15O4  C7H15O   C7H15    C5H9O    
C7H14O3 aC8H17   iC8H16   dC8H17   iC8H15   
iC8H18  C8H16O3  C6H12CHO C8H17    cC8H17OO 
cC8H17O2   cC8H17O4 
!#############################################################################################
!#######################################cyC6H12###############################################
!#############################################################################################
cyC6H9O cyC6H12  cyC6H11  cyC6H10  cyC6H10OOH
cyC6H9  cyC6H11OO   cyOOC6H10OOH   cyC6H8   cyC6H11O
cyC6H7  cyC6H9OO cyC6H8OOH   
!#############################################################################################
!######################################PropylCHX##############################################
!##
!##
A1  A1-  C6H5OH    C6H5O C5H5  
C5H6 A1C2H C7H8 A1C2H3    A1C2H3*    
n-C8H7   C7H7 A1C2H-    A2   A2-   
INDENE   INDENYL   P2   P2-  A2C2H* 
A2R5 A2C2H A2R5- A3   A3-   
A4  A4-  C18H12    C18H11    A3C2H 
A3C2H*   C6H2 C8H2 C6H  C8H   
A4C2H    A4C2H*    BAPYR*S   BGHIF BAPYR 
A2CH3    A2CH2 A3CH3 A3CH2 
!#############################################################################################
!#############################CYC6 ADDITION   2020##############################################
!#############################################################################################
a-cyC6H10OOH  b-cyC6H10OOH   c-cyC6H10OOH   d-cyC6H10OOH   k-cyC6H10O  
a-cyOOC6H10OOH    b-cyC6H10O b-cyOOC6H10OOH c-cyC6H10O c-cyOOC6H10OOH 
d-cyC6H10O    d-cyOOC6H10OOH a1-cyC6H9(OOH)2    a2-cyC6H9(OOH)2    a3-cyC6H9(OOH)2    
b1-cyC6H9(OOH)2   b2-cyC6H9(OOH)2    b3-cyC6H9(OOH)2    c1-cyC6H9(OOH)2    c2-cyC6H9(OOH)2    
c3-cyC6H9(OOH)2   c4-cyC6H9(OOH)2    d1-cyC6H9(OOH)2    d2-cyC6H9(OOH)2    b1-cyC6H9O(OOH)    
c1-cyC6H9O(OOH)   d1-cyC6H9O(OOH)    k2-cyC6H9O(OOH)    b2-cyC6H9O(OOH)    c2-cyC6H9O(OOH)    
d2-cyC6H9O(OOH)   k3-cyC6H9O(OOH)    b3-cyC6H9O(OOH)    c3-cyC6H9O(OOH)    c4-cyC6H9O(OOH)    
k4-cyC6H9O(OOH)   
END
!##################################################################################################################################################################################
!##################################################################################################################################################################################
!##################################################################################################################################################################################
!##################################################################################################################################################################################
!##################################################################################################################################################################################
!##################################################################################################################################################################################
REACTIONS  MOLES  KELVINS
!*******************************************************************************
!********** O ******************************************************************
!*******************************************************************************
2O+M=O2+M                                   5.400E+13    0.000       -899.700       ![4]
  H2/2.5/H2O/16.25/CO/1.88/CO2/3.75/AR/0.87/HE/0.87/
!*******************************************************************************
!********** HO2 ****************************************************************
!*******************************************************************************
H+O2(+M)=HO2(+M)                            4.660E+12    0.440          0.000       ! [6]
  H2/2.5/H2O/16.25/AR/0.7/HE/0.7/CO/1.875/CO2/3.75/
  LOW /2.500E+18    -0.970       0.000/  ![7,8]
  TROE/5.000E-01     1.000E-30   1.0000E+30/
!***************************************************************
!********** OH *************************************************
!***************************************************************
O+HO2=O2+OH                                 1.630E+13    0.000       -224.000       ![2]
H+HO2=2OH                                   4.000E+14    0.000        700.000       ![2]
H+O+M=OH+M                                  7.730E+18   -1.000          0.000       ![4]
  H2/2.5/CH4/7.5/C2H6/7.5/H2O/16.25/CO/1.88/CO2/3.75/AR/0.87/HE/0.87/
H+O2=OH+O                                   1.900E+14   -0.100       7560.000       ![2]
!***************************************************************
!********** H2 *************************************************
!***************************************************************
H+HO2=H2+O2                                 2.000E+14    0.000       1030.000       ![2]
H2+O=OH+H                                   8.790E+14    0.000       9650.000       ![2]
DUPLICATE
H2+O=OH+H                                   3.820E+12    0.000       4000.000       ![2]
DUPLICATE
2H+M=H2+M                                   7.470E+17   -1.000          0.000       ![3]
  H2/0/H2O/0/CO/1.88/CO2/3.75/H/0/N2/0/AR/0/HE/0.87/
3H=H2+H                                     3.200E+15    0.000          0.000       ![3]
2H+N2=H2+N2                                 5.400E+18   -1.300          0.000       ![3]
2H+H2=2H2                                   1.000E+17   -0.600          0.000       ![3]
2H+AR=H2+AR                                 6.530E+17   -1.000          0.000       ![2]
H2+O2=2OH                                   2.400E+13    0.470      35121.000       ![1]
!***************************************************************
!********** H2O2 ***********************************************
!***************************************************************
2HO2=H2O2+O2                                1.320E+11    0.000       -820.300        ![2]
DUPLICATE
2HO2=H2O2+O2                                4.220E+14    0.000       6030.800       ![2]
DUPLICATE
H2O2+O=OH+HO2                               8.430E+11    0.000       2000.000       ![2]
H2O2+H=HO2+H2                               1.690E+12    0.000       1889.600       ![2]
OH+OH(+M)=H2O2(+M)                          1.350E+14   -0.320          0.000       ![101]
  AR/0.70/HE/0.40/H2/2.50/H2O/6.00/H2O2/6.00/CO/1.50/CO2/2.00/
  LOW /2.760E+25   -3.200        0.000/
  TROE/0.570        1.000E+30    1.000E-30/
!***************************************************************
!********** H2O ************************************************
!***************************************************************
H2O2+OH=H2O+HO2                             1.930E+12    0.000        215.000       ![2]
DUPLICATE
H2O2+OH=H2O+HO2                             1.640E+18    0.000      14800.000       ![2]
DUPLICATE 
OH+HO2=H2O+O2                               2.890E+13    0.000       -250.000       ![2]
DUPLICATE
OH+HO2=H2O+O2                               9.270E+15    0.000       8810.000       ![2]
DUPLICATE
2OH=O+H2O                                   3.350E+04    2.420       -970.000       ![2]
H2O2+H=OH+H2O                               1.020E+13    0.000       1800.600       ![2]
H+HO2=H2O+O                                 1.440E+12    0.000          0.000       ![2]
H+OH(+M)=H2O(+M)                            2.511E+13    0.234        -57.500       ! [10]
  H2/2.5/H2O/16.25/AR/0.7/HE/0.7/CO/1.875/CO2/3.75/
  LOW /1.780E+20   -1.430      0.000/
  TROE/7.200E-01    1.000E+33  1.000E+33/
OH+H2=H2O+H                                 2.160E+08    1.520       1740.000       ![4]
2H+H2O=H2+H2O                               1.000E+19   -1.000          0.000       ![3]
!***************************************************************
!********** CO *************************************************
!***************************************************************
C+OH=CO+H                                   5.000E+13    0.000          0.000       ![139]
O2+C=CO+O                                   1.200E+14    0.000       2009.900       ![140]
CO+HO2=CO2+OH                               1.150E+05    2.280       8775.000       ![91]
CO+O(+M)=CO2(+M)                            1.362E+10    0.000       1242.000       ![173]
  LOW /1.173E+24   -2.790      2095.000/
  H2/2.0/H2O/12/CO/1.75/CO2/3.6/AR/0.7/HE/0.7/
CO+OH=CO2+H                                 1.010E+11    0.000         30.000       ![2]
DUPLICATE
CO+OH=CO2+H                                 9.030E+11    0.000       2300.000       ![2]
DUPLICATE
CO+OH=CO2+H                                 1.010E+13    0.000       8050.000       ![2]
DUPLICATE
O2+CO=CO2+O                                 1.260E+13    0.000      23682.900       ![4]
!***************************************************************
!********** CH *************************************************
!***************************************************************
H+CH=C+H2                                   8.430E+12    0.000          0.000       ![1]
CH+O=CO+H                                   3.970E+13    0.000          0.000       ![14]
O2+CH=CO2+H                                 1.660E+13    0.000          0.000       ![14]
O2+CH=CO+OH                                 1.660E+13    0.000          0.000       ![14]
!***************************************************************
!********** HCO ************************************************
!***************************************************************
CH+OH=HCO+H                                 3.000E+13    0.000          0.000       ![14]
CO2+CH=HCO+CO                               3.430E+12    0.000        345.200       ![14]
HCO+M=H+CO+M                                4.750E+11    0.660       7485.000       ![183]    
  H2/2.5/CO/1.87/CO2/3.75/H2O/16.25/AR/0.87/HE/0.87/
HCO+HO2=CO2+OH+H                            3.000E+13    0.000          0.000       ![12]
HCO+OH=H2O+CO                               1.020E+14    0.000          0.000       ![4]
HCO+O=CO2+H                                 3.010E+13    0.000          0.000       ![4]
HCO+O=CO+OH                                 3.010E+13    0.000          0.000       ![4]
HCO+H=CO+H2                                 9.000E+13    0.000          0.000       ![4]
HCO+O2=OH+CO2                               0.200E+10    0.680       -236.000       ![4]
HCO+O2=HO2+CO                               2.500E+10    0.680       -236.000       ![4]
!***************************************************************
!********** CH2 ************************************************
!***************************************************************
CH2+O=CO+H2                                 4.800E+13    0.000          0.000       ![1]
CH2+O=CO+2H                                 7.200E+13    0.000          0.000       ![1]
H+CH2=CH+H2                                 6.020E+12    0.000       -899.700       ![1]
O2+CH2=CO+H2O                               1.480E+12    0.000        750.500       ![1]
O2+CH2=CO+OH+H                              8.150E+12    0.000        750.500       ![1]
O2+CH2=CO2+2H                               5.430E+12    0.000        750.500       ![1]
!***************************************************************
!********** CH2(S) *********************************************
!***************************************************************
CH2(S)+M=CH2+M                              1.510E+13    0.000          0.000       ![1]
  CH4/0.48/C2H2/3.2/C2H4/1.6/C2H6/1.44/O2/0.4/H2O/6.5/CO/0.75/CO2/1.5/AR/0.7/
H+CH2(S)=CH2+H                              2.000E+14    0.000          0.000       ![1]
O2+CH2(S)=CO+OH+H                           3.130E+13    0.000          0.000       ![5]
!***************************************************************
!********** CH2O ***********************************************
!*************************************************************** 
2HCO=CH2O+CO                                3.010E+13    0.000          0.000       ![157]
CH2+OH=CH2O+H                               1.810E+13    0.000          0.000       ![1]
!REF:laskin et al. ijck   32   589-614   2000
HCO+H(+M)=CH2O(+M)                          1.090E+12    0.480   -130.000  ![187]
  LOW /1.350E+024   -2.570      712.500/
  TROE/7.824E-001    2.710E+02    2.755E+03    6.570E+03/
  H2/2.00/H2O/6.00/AR/0.70/CO/1.50/CO2/2.00/CH4/2.00/C2H6/3.00/HE/0.70/!corr_2016
CO+H2(+M)=CH2O(+M)                          4.300E+07    1.500      39800.000       ! [187]
  LOW /5.070E+027    -3.420     42174.000/
  TROE/9.320E-001     1.970E+02     1.540E+03    1.030E+04/
H2/2.00/H2O/6.00/AR/0.70/CO/1.50/CO2/2.00/CH4/2.00/C2H6/3.00/HE/0.70/
!CH2O+M=H2+CO+M                              2.700E+36   -5.540      48662.5         ![1] was error
! CH4/3/C2H6/3/O2/0.4/H2O/6.5/CO/0.75/CO2/1.5/AR/0.2/
!CH2O+M=HCO+H+M                              2.700E+36   -5.540      48662.5         ![1] was error
! CH4/3/C2H6/3/O2/0.4/H2O/6.5/CO/0.75/CO2/1.5/AR/0.2/
CH2O+HO2=H2O2+HCO                           3.010E+12    0.000       6580.500       ![1]
CH2O+OH=HCO+H2O                             3.430E+09    1.180       -224.900       ![5]
CH2O+O=HCO+OH                               4.160E+11    0.570       1390.400       ![4]
CH2O+CH=CH2+HCO                             9.640E+13    0.000       -259.800       ![7]
CH2O+H=HCO+H2                               1.260E+08    1.620       1089.700       ![20]
CO2+CH2=CH2O+CO                             2.350E+10    0.000          0.000       ![5]
O2+CH2=CH2O+O                               4.200E+12    0.000        750.500       ![1]
O2+CH2O=HCO+HO2                             6.020E+13    0.000      20460.700       ![7]
!***************************************************************
!********** CH3 ************************************************
!***************************************************************
CH3+H=CH2+H2                                7.000E+13    0.000          7.500E+03   ![7]
CH3+M=CH2+H+M                               2.910E+16    0.000      45602.600       ![1]
  CH4/3/C2H6/3/O2/0.4/H2O/6.5/CO/0.75/CO2/1.5/AR/0.4/
CH3+OH=CH2(S)+H2O                           7.230E+13    0.000       1400.000       ![1]   *1.3
CH3+O=CH2O+H                                4.230E+13    0.000          0.000       ![7]   /4
CH2+HCO=CH3+CO                              1.810E+13    0.000          0.000       ![5]
O2+CH3=CH2O+OH                              1.210E+12    0.000       7094.800       ![4]   7.210E+11*1.6  
H2+CH2(S)=CH3+H                             7.230E+13    0.000          0.000       ![1]
!***************************************************************
!********** CH3O ***********************************************
!***************************************************************
CH3O+CO=CH3+CO2                             1.570E+13    0.000       5940.000       ![5]
CH3O+HO2=CH2O+H2O2                          3.010E+11    0.000          0.000       ![5]
CH3O+H=CH2(S)+H2O                           2.620E+14   -0.200        535.000       ![1]
CH2O+H(+M)=CH3O(+M)                         1.080E+11    0.500       1300.000       ![1]
  H2/2/CH4/2/C2H6/3/H2O/6/CO/1.5/CO2/2/
  TROE/7.580E-01    9.400E+01     1.555E+03    4.200E+03/
  LOW /2.200E+30   -4.800      2780.000/
CH3+OH=CH3O+H                               5.700E+12   -0.230       6900.000       ![8]
CH3+O2=CH3O+O                               2.100E+13    0.000      16340.000       ![4]
OH+CH3O=CH2O+H2O                            1.810E+13    0.000          0.000       ![5]
O+CH3O=CH2O+OH                              1.810E+12    0.000          0.000       ![1]
CH3+HO2=CH3O+OH                             1.800E+13    0.000          0.000       ![7]
H+CH3O=CH2O+H2                              1.810E+13    0.000          0.000       ![7]
O2+CH3O=CH2O+HO2                            2.170E+10    0.000        880.400       ![20]
!***************************************************************
!********** CH2OH **********************************************
!***************************************************************
CH2OH+HCO=2CH2O                             1.800E+14    0.000          0.000       ![137]
CH2OH+CH2=CH2O+CH3                          1.200E+12    0.000          0.000       ![1]
CH2OH+H=CH2(S)+H2O                          3.280E+13   -0.100        305.000       ![1]
CH3O+H=H+CH2OH                              4.150E+07    1.600        812.000       ![1]
CH2O+H(+M)=CH2OH(+M)                        5.400E+11    0.500       1800.000       ![162]
  H2/2/CH4/2/C2H6/3/H2O/6/CO/1.5/CO2/2/
  TROE/7.187E-01    1.030E+02     1.291E+03    4.160E+03/
  LOW /1.270E+32   -4.820      3265.000/
OH+CH2OH=CH2O+H2O                           2.410E+13    0.000          0.000       ![137]
O+CH2OH=CH2O+OH                             9.030E+13    0.000          0.000       ![146]
H+CH2OH=CH2O+H2                             1.580E+13    0.000          0.000       ![147]/2 correction   15.07.2015
H+CH2OH=CH3+OH                              1.020E+13    0.000          0.000       ![148]
O2+CH2OH=CH2O+HO2                           1.570E+15   -1.000          0.000       ![7]
!***************************************************************
!********** CH4 ************************************************
!***************************************************************
CH3O+CH3=CH2O+CH4                           2.410E+13    0.000          0.000       ![5]
CH2OH+CH3=CH2O+CH4                          1.400E+13    0.000          0.000       ![1]
CH4+HO2=CH3+H2O2                            4.480E+12    0.000      12615.000       ![11]
H+CH3(+M)=CH4(+M)                           1.000E+16   -0.500        263.000       ![162, *0.8]  
  CH4/3/C2H6/3/O2/0.4/H2O/6.5/CO/0.75/CO2/1.5/AR/0.2/
  TROE/7.830E-01    7.400E+01     2.941E+03    6.964E+03/
  LOW /1.700E+33   -4.760      1220.000/
CH3+HCO=CH4+CO                              1.200E+14    0.000          0.000       ![5]
CH2O+CH3=CH4+HCO                            7.830E-08    6.100        989.900       ![157]
CH4+OH=CH3+H2O                              1.570E+07    1.830       1400.000       ![7]
CH4+O=CH3+OH                                7.230E+08    1.560       4269.900       ![1]
CH4+CH2(S)=2CH3                             7.000E+13    0.000          0.000       ![1]
CH4+CH2=2CH3                                4.300E+12    0.000       5051.700       ![150]
CH4+H=CH3+H2                                6.600E+08    1.600       5420.000       ![1]
CH4+C=CH+CH3                                5.000E+13    0.000      12085.600       ![1]
CH4+O2=CH3+HO2                              3.970E+13    0.000      28631.200       ![7]
!***************************************************************
!********** CH3OH **********************************************
!***************************************************************
CH3OH+O2=CH2OH+HO2                          2.050E+13    0.000      22542.000       ![137] 
CH3OH+O=CH3O+OH                             1.000E+13    0.000       2356.400       ![147]
CH3OH+O=CH2OH+OH                            3.880E+05    2.500       1551.700       ![137]
CH3OH+M=CH2(S)+H2O+M                        7.000E+15    0.000      33437.900       ![1]
CH2OH+CH3O=CH3OH+CH2O                       2.400E+13    0.000          0.000       ![166]
CH2OH+CH2O=CH3OH+HCO                        5.500E+03    2.800       2950.000       ![137]
CH2OH+HCO=CH3OH+CO                          1.200E+14    0.000          0.000       ![137]
2CH2OH=CH3OH+CH2O                           4.800E+12    0.000          0.000       ![137]
CH3O+CH2O=CH3OH+HCO                         1.100E+11    0.000       1500.000       ![5]
2CH3O=CH3OH+CH2O                            6.000E+13    0.000          0.000       ![5]
CH3O+HCO=CH3OH+CO                           1.100E+11    0.000       1500.000       ![1]
CH3OH+CH3=CH3O+CH4                          1.000E+01    3.450       4020.000       ![1]
CH3OH+CH3=CH2OH+CH4                         2.000E+01    3.450       4020.000       ![1]
CH3OH+CH2=CH3O+CH3                          1.440E+01    3.100       3450.000       ![137]
CH3OH+CH2=CH2OH+CH3                         3.190E+01    3.200       3600.000       ![137]
CH3OH+CH2(S)=CH2OH+CH3                      1.200E+12    0.000          0.000       ![1]
CH3OH+OH=CH3O+H2O                           1.100E+06    1.920       -144.000       ![1]
CH3OH+OH=CH2OH+H2O                          5.100E+06    1.920       -144.000       ![1]
CH3OH+H=CH3O+H2                             1.700E+09    1.240       2260.000       ![1]
CH3OH+H=CH2OH+H2                            1.700E+09    1.240       2260.000       ![1]
CH3O+H(+M)=CH3OH(+M)                        2.430E+12    0.500         25.000       ![1]
 H2/2/CH4/2/C2H6/3/H2O/6/CO/1.5/CO2/2/
  TROE/7.000E-01    1.000E+02     9.000E+04    1.000E+04/
  LOW /4.660E+41   -7.440      7085.300/    
CH2OH+H(+M)=CH3OH(+M)                       1.060E+12      0.50        43.000       ![164]
 H2/2/CH4/2/C2H6/3/H2O/6/CO/1.5/CO2/2/
  TROE/6.100E-01    1.000E+02     9.000E+04    1.000E+04/
  LOW /4.360E+31   -4.650      2540.000/
CH3+OH(+M)=CH3OH(+M)                        6.000E+13    0.000          0.000       ![20]
 H2/2/CH4/2/C2H6/3/H2O/6/CO/1.5/CO2/2/
  TROE/8.200E-01    2.000E+02    1.438E+03/
  LOW /1.595E+44   -8.200        0.000/
CH3OH+CH3O2=CH3O+CH3O2H                     1.810E+12    0.000       6710.000       ![137]
!*******************************************************************************
!********** CH3O2 **************************************************************
!*******************************************************************************
CH3+O2(+M)<=>CH3O2(+M)                      7.812E+09    0.900          0.000       ![130]
  LOW /6.850E+024    -3.000   0.000/
  TROE/6.000E-001    1.000E+03    7.000E+01    1.700E+03/
CH3O2+CH3=CH3O+CH3O                         7.500E+12    0.000         -0.500E+03   ![171]
CH3O2+CH3O2=CH2O+CH3OH+O2                   3.110E+14   -1.610         -0.551E+03   ![155]
CH3O2+CH3O2=O2+CH3O+CH3O                    1.400E+16   -1.610          0.980E+03   ![155]
CH3O2+H=CH3O+OH                             9.600E+13    0.000          0.000       ![5]
CH3O2+O=CH3O+O2                             3.600E+13    0.000          0.000       ![5]
CH3O2+OH=CH3OH+O2                           6.000E+13    0.000          0.000       ![5]
CH3O2+CH2O=CH3O+OH+HCO                      2.000E+12    0.000          5.873E+03   ![100]
!***************************************************************
!********** C2H ************************************************
!***************************************************************
C2H+H=C2+H2                                 1.000E+12    0.000          0.000       ![12]
C2H+OH=CH2+CO                               1.810E+13    0.000          0.000       ![5]
C2H+O=CH+CO                                 1.000E+13    0.000          0.000       ![7]
C+CH2=C2H+H                                 5.000E+13    0.000          0.000       ![157]
O2+C2H=CO2+CH                               9.050E+12    0.000          0.000       ![1]
O2+C2H=CO+HCO                               2.450E+12    0.000          0.000       ![5]
!***************************************************************
!********** HCCO ***********************************************
!***************************************************************
C2H+OH=HCCO+H                               2.000E+13    0.000          0.000       ![41]
CH2+HCCO=C2H+CH2O                           1.000E+13    0.000       1006.700       ![1]
H+HCCO=CH2+CO                               0.420E+14    0.000          0.000       ![142] 
O2+C2H=HCCO+O                               4.550E+12    0.000          0.000       ![1]
CO+CH=HCCO                                  2.770E+11    0.000       -860.000       ![14]
HCCO+O=H+2CO                                9.640E+13    0.000          0.000       ![14]
HCCO+OH=CH2O+CO                             1.000E+13    0.000          0.000       ![14]
HCCO+OH=2HCO                                1.000E+13    0.000          0.000       ![14]
HCCO+O2=CO2+CO+H                            4.780E+12   -0.142        575.000       ![179]1.400E+09      1.000    0.000  ![41]
HCCO+O2=HCO+CO+O                            2.180E+02    2.692       1770.000       ![179]1.630E+12    0.000      430.000  ![2]
HCCO+O2=2CO+OH                              1.910E+11   -0.020        511.000       ![179]1.630E+12    0.000      430.000  ![7]
!######################################################################################################################################################################################################
!#############################################################################----H2CC----#############################################################################################################
!######################################################################################################################################################################################################
C2H3+H=H2CC+H2                              6.000E+13    0.000          0.000       ![187]    [R20]
H2CC+H=C2H2+H                               1.000E+14    0.000          0.000       ![187]    [R17]
H2CC+OH=CH2CO+H                             2.000E+13    0.000          0.000       ![187]    [R15]
H2CC+O2=HCO+HCO                             1.000E+13    0.000          0.000       ![187]    [R16]
H2CC+O2=CH2+CO2                             1.000E+13    0.000          0.000       ![187]
C2H4(+M)=H2+H2CC(+M)                        8.000E+12   44.000          4.438E+04   ![187]    [R5b]
  H2/2.000/H2O/6.000/CH4/2.000/CO/1.500/CO2/2.000/C2H6/3.000/AR/0.700/
  LOW /7.000E+050    -9.310          4.993E+04/
  TROE/7.345E-001     1.800E+02      1.035E+03       5.417E+03/
H2CC+C2H2(+M)=C4H4(+M)                      3.500E+05    2.055         -1.200E+03   ![187]    [R18]
  H2/2.000/H2O/6.000/CH4/2.000/CO/1.500/CO2/2.000/C2H6/3.000/C2H2/3.000/C2H4/3.000/
  LOW /1.400E+060   -12.600          3.710E+03/
  TROE/9.800E-001     5.600E+01      5.800E+02       4.160E+03/
C2H2(+M)=H2CC(+M)                           8.000E+14   -0.520         25.375E+03   ![187]    [R19]
  H2/2.000/H2O/6.000/CH4/2.000/CO/1.500/CO2/2.000/C2H6/3.000/C2H2/2.500/C2H4/2.500/AR/0.700/
  LOW /2.450E+15     -0.640          4.970E+04/
!***************************************************************
!********** C2H2 ***********************************************
!***************************************************************
C2H+H(+M)=C2H2(+M)                          2.25E+13     0.320          0.000       ![219]
  TROE/0.6464       1.320E+02    1.315E+03      5.566E+03/
  LOW /3.750E+33   -4.800      956.1/
CH4/2/C2H6/3/H2/2.0/H2O/6.0/CO/1.5/CO2/2.0/AR/0.7/
C2H2+O2=CH2O+CO                             4.600E+15   -0.540      22514.000       ![129]
C2H2+O2=HCCO+OH                             2.000E+07    1.500      15050.000       ![41]/10 !!!!!!!!!!!!!!!!!!!!!!!!!!!
C2H2+OH=CH2CO+H                             7.500E+06    1.550       1060.000       ![177] 
  PLOG/1.000E-02                            1.700E+03    2.560       -425.000/
  PLOG/1.000E-02                            1.500E+04    2.280       -147.000/
  PLOG/0.1                                  3.000E+05    1.920        301.000/
  PLOG/1.000                                7.500E+06    1.550       1060.000/
  PLOG/1.00E+01                             5.100E+06    1.650       1711.000/
  PLOG/1.00E+02                             1.500E+04    2.450       2253.000/
C2H2+OH=CH3+CO                              1.300E+09    0.730       1298.000       ![177] 
  PLOG/1.000E-02                            4.800E+05    1.680       -166.000/
  PLOG/1.000E-02                            4.400E+06    1.400        114.000/
  PLOG/1.000E-01                            7.700E+07    1.050        561.000/
  PLOG/1.000                                1.300E+09    0.730       1298.000/
  PLOG/1.000E+01                            4.300E+08    0.920       1880.000/
  PLOG/1.000E+02                            8.300E+05    1.770       2364.000/
C2H2+OH=C2H+H2O                             2.600E+06    2.140       8586.000       ![177] 
C2H2+O=CH2+CO                               7.400E+08    1.280       1244.000       ![201] 
C2H2+O=HCCO+H                               2.960E+09    1.280       1244.000       ![201]
C2H2+O<=>C2H+OH                             4.630E+19   -1.410      14485.000       ![102]   4.630E+19 sens back
CH2OH+C2H=CH2O+C2H2                         4.800E+13    0.000          0.000       ![1]
CH3OH+C2H=CH3O+C2H2                         1.200E+12    0.000          0.000       ![1]
CH3OH+C2H=CH2OH+C2H2                        6.000E+12    0.000          0.000       ![1]
C2H2+HO2=>CH2+CO+OH                         6.090E+09    0.000       3974.000       ![5]
C2H2+HO2=CH2CO+OH                           6.030E+09    0.000       4000.000       ![201]
2HCCO=C2H2+2CO                              1.000E+13    0.000          0.000       ![41]